*INCLUDE, INPUT=all.msh
*INCLUDE, INPUT= top.nam
*INCLUDE, INPUT= bot.nam
*INCLUDE, INPUT= press.sur
*BOUNDARY
Nbot,1,6,0
*MATERIAL, NAME=material_1
*Elastic
70000.000,0.300,20.000
*DENSITY
200.000
*EXPANSION
0.000035
*SOLID SECTION,MATERIAL=material_1,ELSET=Eall
5.000000
*INITIAL CONDITIONS,TYPE=TEMPERATURE
Nall, 20.000000
*STEP
*STATIC
*DLOAD
Eall,GRAV,9.81,0.,0.,-1.

*NODE FILE,OUTPUT=3D
RF,U,NT
*EL FILE
S,E
*END STEP